         125

 He  -2.9640777537417189       -2.9640777537417189       -2.9640777537417189     
 He  -2.9640777537417189       -2.9640777537417189       -1.4820388768708594     
 He  -2.9640777537417189       -2.9640777537417189        0.0000000000000000     
 He  -2.9640777537417189       -2.9640777537417189        1.4820388768708592     
 He  -2.9640777537417189       -2.9640777537417189        2.9640777537417189     
 He  -2.9640777537417189       -1.4820388768708594       -2.9640777537417189     
 He  -2.9640777537417189       -1.4820388768708594       -1.4820388768708594     
 He  -2.9640777537417189       -1.4820388768708594        0.0000000000000000     
 He  -2.9640777537417189       -1.4820388768708594        1.4820388768708592     
 He  -2.9640777537417189       -1.4820388768708594        2.9640777537417189     
 He  -2.9640777537417189        0.0000000000000000       -2.9640777537417189     
 He  -2.9640777537417189        0.0000000000000000       -1.4820388768708594     
 He  -2.9640777537417189        0.0000000000000000        0.0000000000000000     
 He  -2.9640777537417189        0.0000000000000000        1.4820388768708592     
 He  -2.9640777537417189        0.0000000000000000        2.9640777537417189     
 He  -2.9640777537417189        1.4820388768708592       -2.9640777537417189     
 He  -2.9640777537417189        1.4820388768708592       -1.4820388768708594     
 He  -2.9640777537417189        1.4820388768708592        0.0000000000000000     
 He  -2.9640777537417189        1.4820388768708592        1.4820388768708592     
 He  -2.9640777537417189        1.4820388768708592        2.9640777537417189     
 He  -2.9640777537417189        2.9640777537417189       -2.9640777537417189     
 He  -2.9640777537417189        2.9640777537417189       -1.4820388768708594     
 He  -2.9640777537417189        2.9640777537417189        0.0000000000000000     
 He  -2.9640777537417189        2.9640777537417189        1.4820388768708592     
 He  -2.9640777537417189        2.9640777537417189        2.9640777537417189     
 He  -1.4820388768708594       -2.9640777537417189       -2.9640777537417189     
 He  -1.4820388768708594       -2.9640777537417189       -1.4820388768708594     
 He  -1.4820388768708594       -2.9640777537417189        0.0000000000000000     
 He  -1.4820388768708594       -2.9640777537417189        1.4820388768708592     
 He  -1.4820388768708594       -2.9640777537417189        2.9640777537417189     
 He  -1.4820388768708594       -1.4820388768708594       -2.9640777537417189     
 He  -1.4820388768708594       -1.4820388768708594       -1.4820388768708594     
 He  -1.4820388768708594       -1.4820388768708594        0.0000000000000000     
 He  -1.4820388768708594       -1.4820388768708594        1.4820388768708592     
 He  -1.4820388768708594       -1.4820388768708594        2.9640777537417189     
 He  -1.4820388768708594        0.0000000000000000       -2.9640777537417189     
 He  -1.4820388768708594        0.0000000000000000       -1.4820388768708594     
 He  -1.4820388768708594        0.0000000000000000        0.0000000000000000     
 He  -1.4820388768708594        0.0000000000000000        1.4820388768708592     
 He  -1.4820388768708594        0.0000000000000000        2.9640777537417189     
 He  -1.4820388768708594        1.4820388768708592       -2.9640777537417189     
 He  -1.4820388768708594        1.4820388768708592       -1.4820388768708594     
 He  -1.4820388768708594        1.4820388768708592        0.0000000000000000     
 He  -1.4820388768708594        1.4820388768708592        1.4820388768708592     
 He  -1.4820388768708594        1.4820388768708592        2.9640777537417189     
 He  -1.4820388768708594        2.9640777537417189       -2.9640777537417189     
 He  -1.4820388768708594        2.9640777537417189       -1.4820388768708594     
 He  -1.4820388768708594        2.9640777537417189        0.0000000000000000     
 He  -1.4820388768708594        2.9640777537417189        1.4820388768708592     
 He  -1.4820388768708594        2.9640777537417189        2.9640777537417189     
 He   0.0000000000000000       -2.9640777537417189       -2.9640777537417189     
 He   0.0000000000000000       -2.9640777537417189       -1.4820388768708594     
 He   0.0000000000000000       -2.9640777537417189        0.0000000000000000     
 He   0.0000000000000000       -2.9640777537417189        1.4820388768708592     
 He   0.0000000000000000       -2.9640777537417189        2.9640777537417189     
 He   0.0000000000000000       -1.4820388768708594       -2.9640777537417189     
 He   0.0000000000000000       -1.4820388768708594       -1.4820388768708594     
 He   0.0000000000000000       -1.4820388768708594        0.0000000000000000     
 He   0.0000000000000000       -1.4820388768708594        1.4820388768708592     
 He   0.0000000000000000       -1.4820388768708594        2.9640777537417189     
 He   0.0000000000000000        0.0000000000000000       -2.9640777537417189     
 He   0.0000000000000000        0.0000000000000000       -1.4820388768708594     
 He   0.0000000000000000        0.0000000000000000        0.0000000000000000     
 He   0.0000000000000000        0.0000000000000000        1.4820388768708592     
 He   0.0000000000000000        0.0000000000000000        2.9640777537417189     
 He   0.0000000000000000        1.4820388768708592       -2.9640777537417189     
 He   0.0000000000000000        1.4820388768708592       -1.4820388768708594     
 He   0.0000000000000000        1.4820388768708592        0.0000000000000000     
 He   0.0000000000000000        1.4820388768708592        1.4820388768708592     
 He   0.0000000000000000        1.4820388768708592        2.9640777537417189     
 He   0.0000000000000000        2.9640777537417189       -2.9640777537417189     
 He   0.0000000000000000        2.9640777537417189       -1.4820388768708594     
 He   0.0000000000000000        2.9640777537417189        0.0000000000000000     
 He   0.0000000000000000        2.9640777537417189        1.4820388768708592     
 He   0.0000000000000000        2.9640777537417189        2.9640777537417189     
 He   1.4820388768708592       -2.9640777537417189       -2.9640777537417189     
 He   1.4820388768708592       -2.9640777537417189       -1.4820388768708594     
 He   1.4820388768708592       -2.9640777537417189        0.0000000000000000     
 He   1.4820388768708592       -2.9640777537417189        1.4820388768708592     
 He   1.4820388768708592       -2.9640777537417189        2.9640777537417189     
 He   1.4820388768708592       -1.4820388768708594       -2.9640777537417189     
 He   1.4820388768708592       -1.4820388768708594       -1.4820388768708594     
 He   1.4820388768708592       -1.4820388768708594        0.0000000000000000     
 He   1.4820388768708592       -1.4820388768708594        1.4820388768708592     
 He   1.4820388768708592       -1.4820388768708594        2.9640777537417189     
 He   1.4820388768708592        0.0000000000000000       -2.9640777537417189     
 He   1.4820388768708592        0.0000000000000000       -1.4820388768708594     
 He   1.4820388768708592        0.0000000000000000        0.0000000000000000     
 He   1.4820388768708592        0.0000000000000000        1.4820388768708592     
 He   1.4820388768708592        0.0000000000000000        2.9640777537417189     
 He   1.4820388768708592        1.4820388768708592       -2.9640777537417189     
 He   1.4820388768708592        1.4820388768708592       -1.4820388768708594     
 He   1.4820388768708592        1.4820388768708592        0.0000000000000000     
 He   1.4820388768708592        1.4820388768708592        1.4820388768708592     
 He   1.4820388768708592        1.4820388768708592        2.9640777537417189     
 He   1.4820388768708592        2.9640777537417189       -2.9640777537417189     
 He   1.4820388768708592        2.9640777537417189       -1.4820388768708594     
 He   1.4820388768708592        2.9640777537417189        0.0000000000000000     
 He   1.4820388768708592        2.9640777537417189        1.4820388768708592     
 He   1.4820388768708592        2.9640777537417189        2.9640777537417189     
 He   2.9640777537417189       -2.9640777537417189       -2.9640777537417189     
 He   2.9640777537417189       -2.9640777537417189       -1.4820388768708594     
 He   2.9640777537417189       -2.9640777537417189        0.0000000000000000     
 He   2.9640777537417189       -2.9640777537417189        1.4820388768708592     
 He   2.9640777537417189       -2.9640777537417189        2.9640777537417189     
 He   2.9640777537417189       -1.4820388768708594       -2.9640777537417189     
 He   2.9640777537417189       -1.4820388768708594       -1.4820388768708594     
 He   2.9640777537417189       -1.4820388768708594        0.0000000000000000     
 He   2.9640777537417189       -1.4820388768708594        1.4820388768708592     
 He   2.9640777537417189       -1.4820388768708594        2.9640777537417189     
 He   2.9640777537417189        0.0000000000000000       -2.9640777537417189     
 He   2.9640777537417189        0.0000000000000000       -1.4820388768708594     
 He   2.9640777537417189        0.0000000000000000        0.0000000000000000     
 He   2.9640777537417189        0.0000000000000000        1.4820388768708592     
 He   2.9640777537417189        0.0000000000000000        2.9640777537417189     
 He   2.9640777537417189        1.4820388768708592       -2.9640777537417189     
 He   2.9640777537417189        1.4820388768708592       -1.4820388768708594     
 He   2.9640777537417189        1.4820388768708592        0.0000000000000000     
 He   2.9640777537417189        1.4820388768708592        1.4820388768708592     
 He   2.9640777537417189        1.4820388768708592        2.9640777537417189     
 He   2.9640777537417189        2.9640777537417189       -2.9640777537417189     
 He   2.9640777537417189        2.9640777537417189       -1.4820388768708594     
 He   2.9640777537417189        2.9640777537417189        0.0000000000000000     
 He   2.9640777537417189        2.9640777537417189        1.4820388768708592     
 He   2.9640777537417189        2.9640777537417189        2.9640777537417189     
         125

 He                       NaN                       NaN                       NaN
 He                       NaN                       NaN                       NaN
 He                       NaN                       NaN                       NaN
 He                       NaN                       NaN                       NaN
 He                       NaN                       NaN                       NaN
 He                       NaN                       NaN                       NaN
 He                       NaN                       NaN                       NaN
 He                       NaN                       NaN                       NaN
 He                       NaN                       NaN                       NaN
 He                       NaN                       NaN                       NaN
 He                       NaN                       NaN                       NaN
 He                       NaN                       NaN                       NaN
 He                       NaN                       NaN                       NaN
 He                       NaN                       NaN                       NaN
 He                       NaN                       NaN                       NaN
 He                       NaN                       NaN                       NaN
 He                       NaN                       NaN                       NaN
 He                       NaN                       NaN                       NaN
 He                       NaN                       NaN                       NaN
 He                       NaN                       NaN                       NaN
 He                       NaN                       NaN                       NaN
 He                       NaN                       NaN                       NaN
 He                       NaN                       NaN                       NaN
 He                       NaN                       NaN                       NaN
 He                       NaN                       NaN                       NaN
 He                       NaN                       NaN                       NaN
 He                       NaN                       NaN                       NaN
 He                       NaN                       NaN                       NaN
 He                       NaN                       NaN                       NaN
 He                       NaN                       NaN                       NaN
 He                       NaN                       NaN                       NaN
 He  -1.2697148849248878       -1.6472495931925255       -1.0019499584272353     
 He  -2.8940770719509445      -0.18517821332618770        1.4714853102587580     
 He  -2.5070704388682774       -1.2806841562254074        1.6577744517584978     
 He                       NaN                       NaN                       NaN
 He                       NaN                       NaN                       NaN
 He -0.94299525263643158       0.24330396340795266       -1.0748104029387057E-002
 He  0.59842010181435945      -0.66245045068059072       0.37873034118892018     
 He  -1.2698585445648174        2.6000369910871028        2.0079987897412925     
 He                       NaN                       NaN                       NaN
 He                       NaN                       NaN                       NaN
 He  -2.5295679009100995        2.3891306147524410E-002  -1.5307590123665673     
 He  0.31658110821265822       0.33657356626601703        1.4111806530147595E-002
 He -0.81842719895639948       -2.4189816504815518        2.5010800391769181     
 He                       NaN                       NaN                       NaN
 He                       NaN                       NaN                       NaN
 He                       NaN                       NaN                       NaN
 He                       NaN                       NaN                       NaN
 He                       NaN                       NaN                       NaN
 He                       NaN                       NaN                       NaN
 He                       NaN                       NaN                       NaN
 He                       NaN                       NaN                       NaN
 He                       NaN                       NaN                       NaN
 He                       NaN                       NaN                       NaN
 He                       NaN                       NaN                       NaN
 He                       NaN                       NaN                       NaN
 He   2.1326254642526870       -2.0434803041871095        2.5775366442148888     
 He   2.0787136875478547        1.9837662189020790       -1.6840003004756627     
 He  -1.8661525513376220       -2.1084856793896698       0.29603979006564163     
 He                       NaN                       NaN                       NaN
 He                       NaN                       NaN                       NaN
 He   1.3314772147300451       0.42948888643276290        2.7262943878311146     
 He  0.80870224076575503        2.6407686235106578      -0.37930987582951303     
 He   2.0707175090678631      -0.68555006874741908        1.4480207837495400     
 He                       NaN                       NaN                       NaN
 He                       NaN                       NaN                       NaN
 He -0.65892374837507151       -2.6091651529878264      -0.26203547229208252     
 He   1.0710684313773233       -2.0361285897770913        2.7611945294840479     
 He   1.6144066271747233       0.73472775568157256        1.6984744819185131     
 He                       NaN                       NaN                       NaN
 He                       NaN                       NaN                       NaN
 He                       NaN                       NaN                       NaN
 He                       NaN                       NaN                       NaN
 He                       NaN                       NaN                       NaN
 He                       NaN                       NaN                       NaN
 He                       NaN                       NaN                       NaN
 He                       NaN                       NaN                       NaN
 He                       NaN                       NaN                       NaN
 He                       NaN                       NaN                       NaN
 He                       NaN                       NaN                       NaN
 He                       NaN                       NaN                       NaN
 He  -2.6219489088358752       -2.5755007356253352        2.7548502864196323     
 He  -1.4190250322557769        2.3136675159253284      -0.64473276540180735     
 He   1.1220810532011181        1.1998490712537437        7.4137569741772255E-002
 He                       NaN                       NaN                       NaN
 He                       NaN                       NaN                       NaN
 He   2.3276044670086460        1.9212697826759795      -0.45893056131597992     
 He  -2.8598451754741401       -2.2896812857177027       -1.8086359628340205     
 He   2.5396507482903230       0.66568785528421992       -4.4135034204229751E-003
 He                       NaN                       NaN                       NaN
 He                       NaN                       NaN                       NaN
 He -0.11060194508868465        2.2757380004197549       -2.3060914068947609     
 He   2.7729604389612672        2.8285054627753206      -0.24735589930271004     
 He  0.17198930230765605      -0.57775776725999084       -1.1671205825168163     
 He                       NaN                       NaN                       NaN
 He                       NaN                       NaN                       NaN
 He                       NaN                       NaN                       NaN
 He                       NaN                       NaN                       NaN
 He                       NaN                       NaN                       NaN
 He                       NaN                       NaN                       NaN
 He                       NaN                       NaN                       NaN
 He                       NaN                       NaN                       NaN
 He                       NaN                       NaN                       NaN
 He                       NaN                       NaN                       NaN
 He                       NaN                       NaN                       NaN
 He                       NaN                       NaN                       NaN
 He                       NaN                       NaN                       NaN
 He                       NaN                       NaN                       NaN
 He                       NaN                       NaN                       NaN
 He                       NaN                       NaN                       NaN
 He                       NaN                       NaN                       NaN
 He                       NaN                       NaN                       NaN
 He                       NaN                       NaN                       NaN
 He                       NaN                       NaN                       NaN
 He                       NaN                       NaN                       NaN
 He                       NaN                       NaN                       NaN
 He                       NaN                       NaN                       NaN
 He                       NaN                       NaN                       NaN
 He                       NaN                       NaN                       NaN
 He                       NaN                       NaN                       NaN
 He                       NaN                       NaN                       NaN
 He                       NaN                       NaN                       NaN
 He                       NaN                       NaN                       NaN
 He                       NaN                       NaN                       NaN
 He                       NaN                       NaN                       NaN
