         125

 He  -2.9640777537417189       -2.9640777537417189       -2.9640777537417189     
 He  -2.9640777537417189       -2.9640777537417189       -1.4820388768708594     
 He  -2.9640777537417189       -2.9640777537417189        0.0000000000000000     
 He  -2.9640777537417189       -2.9640777537417189        1.4820388768708592     
 He  -2.9640777537417189       -2.9640777537417189        2.9640777537417189     
 He  -2.9640777537417189       -1.4820388768708594       -2.9640777537417189     
 He  -2.9640777537417189       -1.4820388768708594       -1.4820388768708594     
 He  -2.9640777537417189       -1.4820388768708594        0.0000000000000000     
 He  -2.9640777537417189       -1.4820388768708594        1.4820388768708592     
 He  -2.9640777537417189       -1.4820388768708594        2.9640777537417189     
 He  -2.9640777537417189        0.0000000000000000       -2.9640777537417189     
 He  -2.9640777537417189        0.0000000000000000       -1.4820388768708594     
 He  -2.9640777537417189        0.0000000000000000        0.0000000000000000     
 He  -2.9640777537417189        0.0000000000000000        1.4820388768708592     
 He  -2.9640777537417189        0.0000000000000000        2.9640777537417189     
 He  -2.9640777537417189        1.4820388768708592       -2.9640777537417189     
 He  -2.9640777537417189        1.4820388768708592       -1.4820388768708594     
 He  -2.9640777537417189        1.4820388768708592        0.0000000000000000     
 He  -2.9640777537417189        1.4820388768708592        1.4820388768708592     
 He  -2.9640777537417189        1.4820388768708592        2.9640777537417189     
 He  -2.9640777537417189        2.9640777537417189       -2.9640777537417189     
 He  -2.9640777537417189        2.9640777537417189       -1.4820388768708594     
 He  -2.9640777537417189        2.9640777537417189        0.0000000000000000     
 He  -2.9640777537417189        2.9640777537417189        1.4820388768708592     
 He  -2.9640777537417189        2.9640777537417189        2.9640777537417189     
 He  -1.4820388768708594       -2.9640777537417189       -2.9640777537417189     
 He  -1.4820388768708594       -2.9640777537417189       -1.4820388768708594     
 He  -1.4820388768708594       -2.9640777537417189        0.0000000000000000     
 He  -1.4820388768708594       -2.9640777537417189        1.4820388768708592     
 He  -1.4820388768708594       -2.9640777537417189        2.9640777537417189     
 He  -1.4820388768708594       -1.4820388768708594       -2.9640777537417189     
 He  -1.4820388768708594       -1.4820388768708594       -1.4820388768708594     
 He  -1.4820388768708594       -1.4820388768708594        0.0000000000000000     
 He  -1.4820388768708594       -1.4820388768708594        1.4820388768708592     
 He  -1.4820388768708594       -1.4820388768708594        2.9640777537417189     
 He  -1.4820388768708594        0.0000000000000000       -2.9640777537417189     
 He  -1.4820388768708594        0.0000000000000000       -1.4820388768708594     
 He  -1.4820388768708594        0.0000000000000000        0.0000000000000000     
 He  -1.4820388768708594        0.0000000000000000        1.4820388768708592     
 He  -1.4820388768708594        0.0000000000000000        2.9640777537417189     
 He  -1.4820388768708594        1.4820388768708592       -2.9640777537417189     
 He  -1.4820388768708594        1.4820388768708592       -1.4820388768708594     
 He  -1.4820388768708594        1.4820388768708592        0.0000000000000000     
 He  -1.4820388768708594        1.4820388768708592        1.4820388768708592     
 He  -1.4820388768708594        1.4820388768708592        2.9640777537417189     
 He  -1.4820388768708594        2.9640777537417189       -2.9640777537417189     
 He  -1.4820388768708594        2.9640777537417189       -1.4820388768708594     
 He  -1.4820388768708594        2.9640777537417189        0.0000000000000000     
 He  -1.4820388768708594        2.9640777537417189        1.4820388768708592     
 He  -1.4820388768708594        2.9640777537417189        2.9640777537417189     
 He   0.0000000000000000       -2.9640777537417189       -2.9640777537417189     
 He   0.0000000000000000       -2.9640777537417189       -1.4820388768708594     
 He   0.0000000000000000       -2.9640777537417189        0.0000000000000000     
 He   0.0000000000000000       -2.9640777537417189        1.4820388768708592     
 He   0.0000000000000000       -2.9640777537417189        2.9640777537417189     
 He   0.0000000000000000       -1.4820388768708594       -2.9640777537417189     
 He   0.0000000000000000       -1.4820388768708594       -1.4820388768708594     
 He   0.0000000000000000       -1.4820388768708594        0.0000000000000000     
 He   0.0000000000000000       -1.4820388768708594        1.4820388768708592     
 He   0.0000000000000000       -1.4820388768708594        2.9640777537417189     
 He   0.0000000000000000        0.0000000000000000       -2.9640777537417189     
 He   0.0000000000000000        0.0000000000000000       -1.4820388768708594     
 He   0.0000000000000000        0.0000000000000000        0.0000000000000000     
 He   0.0000000000000000        0.0000000000000000        1.4820388768708592     
 He   0.0000000000000000        0.0000000000000000        2.9640777537417189     
 He   0.0000000000000000        1.4820388768708592       -2.9640777537417189     
 He   0.0000000000000000        1.4820388768708592       -1.4820388768708594     
 He   0.0000000000000000        1.4820388768708592        0.0000000000000000     
 He   0.0000000000000000        1.4820388768708592        1.4820388768708592     
 He   0.0000000000000000        1.4820388768708592        2.9640777537417189     
 He   0.0000000000000000        2.9640777537417189       -2.9640777537417189     
 He   0.0000000000000000        2.9640777537417189       -1.4820388768708594     
 He   0.0000000000000000        2.9640777537417189        0.0000000000000000     
 He   0.0000000000000000        2.9640777537417189        1.4820388768708592     
 He   0.0000000000000000        2.9640777537417189        2.9640777537417189     
 He   1.4820388768708592       -2.9640777537417189       -2.9640777537417189     
 He   1.4820388768708592       -2.9640777537417189       -1.4820388768708594     
 He   1.4820388768708592       -2.9640777537417189        0.0000000000000000     
 He   1.4820388768708592       -2.9640777537417189        1.4820388768708592     
 He   1.4820388768708592       -2.9640777537417189        2.9640777537417189     
 He   1.4820388768708592       -1.4820388768708594       -2.9640777537417189     
 He   1.4820388768708592       -1.4820388768708594       -1.4820388768708594     
 He   1.4820388768708592       -1.4820388768708594        0.0000000000000000     
 He   1.4820388768708592       -1.4820388768708594        1.4820388768708592     
 He   1.4820388768708592       -1.4820388768708594        2.9640777537417189     
 He   1.4820388768708592        0.0000000000000000       -2.9640777537417189     
 He   1.4820388768708592        0.0000000000000000       -1.4820388768708594     
 He   1.4820388768708592        0.0000000000000000        0.0000000000000000     
 He   1.4820388768708592        0.0000000000000000        1.4820388768708592     
 He   1.4820388768708592        0.0000000000000000        2.9640777537417189     
 He   1.4820388768708592        1.4820388768708592       -2.9640777537417189     
 He   1.4820388768708592        1.4820388768708592       -1.4820388768708594     
 He   1.4820388768708592        1.4820388768708592        0.0000000000000000     
 He   1.4820388768708592        1.4820388768708592        1.4820388768708592     
 He   1.4820388768708592        1.4820388768708592        2.9640777537417189     
 He   1.4820388768708592        2.9640777537417189       -2.9640777537417189     
 He   1.4820388768708592        2.9640777537417189       -1.4820388768708594     
 He   1.4820388768708592        2.9640777537417189        0.0000000000000000     
 He   1.4820388768708592        2.9640777537417189        1.4820388768708592     
 He   1.4820388768708592        2.9640777537417189        2.9640777537417189     
 He   2.9640777537417189       -2.9640777537417189       -2.9640777537417189     
 He   2.9640777537417189       -2.9640777537417189       -1.4820388768708594     
 He   2.9640777537417189       -2.9640777537417189        0.0000000000000000     
 He   2.9640777537417189       -2.9640777537417189        1.4820388768708592     
 He   2.9640777537417189       -2.9640777537417189        2.9640777537417189     
 He   2.9640777537417189       -1.4820388768708594       -2.9640777537417189     
 He   2.9640777537417189       -1.4820388768708594       -1.4820388768708594     
 He   2.9640777537417189       -1.4820388768708594        0.0000000000000000     
 He   2.9640777537417189       -1.4820388768708594        1.4820388768708592     
 He   2.9640777537417189       -1.4820388768708594        2.9640777537417189     
 He   2.9640777537417189        0.0000000000000000       -2.9640777537417189     
 He   2.9640777537417189        0.0000000000000000       -1.4820388768708594     
 He   2.9640777537417189        0.0000000000000000        0.0000000000000000     
 He   2.9640777537417189        0.0000000000000000        1.4820388768708592     
 He   2.9640777537417189        0.0000000000000000        2.9640777537417189     
 He   2.9640777537417189        1.4820388768708592       -2.9640777537417189     
 He   2.9640777537417189        1.4820388768708592       -1.4820388768708594     
 He   2.9640777537417189        1.4820388768708592        0.0000000000000000     
 He   2.9640777537417189        1.4820388768708592        1.4820388768708592     
 He   2.9640777537417189        1.4820388768708592        2.9640777537417189     
 He   2.9640777537417189        2.9640777537417189       -2.9640777537417189     
 He   2.9640777537417189        2.9640777537417189       -1.4820388768708594     
 He   2.9640777537417189        2.9640777537417189        0.0000000000000000     
 He   2.9640777537417189        2.9640777537417189        1.4820388768708592     
 He   2.9640777537417189        2.9640777537417189        2.9640777537417189     
         125

 He                       NaN                       NaN                       NaN
 He                       NaN                       NaN                       NaN
 He   1.9435330189253692       -2.1080837750999035        1.1938744295781303     
 He                       NaN                       NaN                       NaN
 He                       NaN                       NaN                       NaN
 He                       NaN                       NaN                       NaN
 He                       NaN                       NaN                       NaN
 He                       NaN                       NaN                       NaN
 He                       NaN                       NaN                       NaN
 He                       NaN                       NaN                       NaN
 He   1.4616235954297518E+036   6.8918370530623310E+034  -9.8160323225367064E+035
 He                       NaN                       NaN                       NaN
 He                       NaN                       NaN                       NaN
 He                       NaN                       NaN                       NaN
 He                       NaN                       NaN                       NaN
 He                       NaN                       NaN                       NaN
 He                       NaN                       NaN                       NaN
 He                       NaN                       NaN                       NaN
 He                       NaN                       NaN                       NaN
 He                       NaN                       NaN                       NaN
 He                       NaN                       NaN                       NaN
 He                       NaN                       NaN                       NaN
 He                       NaN                       NaN                       NaN
 He                       NaN                       NaN                       NaN
 He                       NaN                       NaN                       NaN
 He                       NaN                       NaN                       NaN
 He                       NaN                       NaN                       NaN
 He                       NaN                       NaN                       NaN
 He                       NaN                       NaN                       NaN
 He                       NaN                       NaN                       NaN
 He                       NaN                       NaN                       NaN
 He                       NaN                       NaN                       NaN
 He                       NaN                       NaN                       NaN
 He                       NaN                       NaN                       NaN
 He                       NaN                       NaN                       NaN
 He                       NaN                       NaN                       NaN
 He                       NaN                       NaN                       NaN
 He                       NaN                       NaN                       NaN
 He                       NaN                       NaN                       NaN
 He                       NaN                       NaN                       NaN
 He                       NaN                       NaN                       NaN
 He                       NaN                       NaN                       NaN
 He                       NaN                       NaN                       NaN
 He                       NaN                       NaN                       NaN
 He                       NaN                       NaN                       NaN
 He                       NaN                       NaN                       NaN
 He                       NaN                       NaN                       NaN
 He                       NaN                       NaN                       NaN
 He                       NaN                       NaN                       NaN
 He                       NaN                       NaN                       NaN
 He   1.3990157900342115E+032   1.7216784477319873E+035  -1.1288066263178089E+035
 He                       NaN                       NaN                       NaN
 He                       NaN                       NaN                       NaN
 He                       NaN                       NaN                       NaN
 He  -5.2073079241678398E+036   9.5431441311283647E+036  -4.8095251331020125E+037
 He                       NaN                       NaN                       NaN
 He                       NaN                       NaN                       NaN
 He                       NaN                       NaN                       NaN
 He                       NaN                       NaN                       NaN
 He                       NaN                       NaN                       NaN
 He                       NaN                       NaN                       NaN
 He   1.0624757856955324E+037   1.1026459452887376E+037   1.7315729235798438E+036
 He   6.5323927299267294E+037   5.3578834050674790E+036   1.1638342616724123E+037
 He                       NaN                       NaN                       NaN
 He                       NaN                       NaN                       NaN
 He                       NaN                       NaN                       NaN
 He                       NaN                       NaN                       NaN
 He                       NaN                       NaN                       NaN
 He                       NaN                       NaN                       NaN
 He                       NaN                       NaN                       NaN
 He   5.6518270964920169E+036  -6.7049656448277967E+036   4.7248695701947528E+037
 He                       NaN                       NaN                       NaN
 He                       NaN                       NaN                       NaN
 He                       NaN                       NaN                       NaN
 He                       NaN                       NaN                       NaN
 He                       NaN                       NaN                       NaN
 He                       NaN                       NaN                       NaN
 He                       NaN                       NaN                       NaN
 He                       NaN                       NaN                       NaN
 He                       NaN                       NaN                       NaN
 He                       NaN                       NaN                       NaN
 He                       NaN                       NaN                       NaN
 He                       NaN                       NaN                       NaN
 He                       NaN                       NaN                       NaN
 He                       NaN                       NaN                       NaN
 He                       NaN                       NaN                       NaN
 He                       NaN                       NaN                       NaN
 He                       NaN                       NaN                       NaN
 He                       NaN                       NaN                       NaN
 He                       NaN                       NaN                       NaN
 He                       NaN                       NaN                       NaN
 He                       NaN                       NaN                       NaN
 He                       NaN                       NaN                       NaN
 He                       NaN                       NaN                       NaN
 He                       NaN                       NaN                       NaN
 He                       NaN                       NaN                       NaN
 He                       NaN                       NaN                       NaN
 He                       NaN                       NaN                       NaN
 He                       NaN                       NaN                       NaN
 He                       NaN                       NaN                       NaN
 He                       NaN                       NaN                       NaN
 He                       NaN                       NaN                       NaN
 He                       NaN                       NaN                       NaN
 He                       NaN                       NaN                       NaN
 He                       NaN                       NaN                       NaN
 He                       NaN                       NaN                       NaN
 He                       NaN                       NaN                       NaN
 He                       NaN                       NaN                       NaN
 He                       NaN                       NaN                       NaN
 He                       NaN                       NaN                       NaN
 He                       NaN                       NaN                       NaN
 He                       NaN                       NaN                       NaN
 He                       NaN                       NaN                       NaN
 He                       NaN                       NaN                       NaN
 He                       NaN                       NaN                       NaN
 He                       NaN                       NaN                       NaN
 He                       NaN                       NaN                       NaN
 He                       NaN                       NaN                       NaN
 He                       NaN                       NaN                       NaN
 He                       NaN                       NaN                       NaN
 He                       NaN                       NaN                       NaN
 He                       NaN                       NaN                       NaN
 He                       NaN                       NaN                       NaN
 He                       NaN                       NaN                       NaN
 He                       NaN                       NaN                       NaN
