         125

 He  -4.3088693800637667       -4.3088693800637667       -4.3088693800637667     
 He  -4.3088693800637667       -4.3088693800637667       -2.1544346900318834     
 He  -4.3088693800637667       -4.3088693800637667        0.0000000000000000     
 He  -4.3088693800637667       -4.3088693800637667        2.1544346900318834     
 He  -4.3088693800637667       -4.3088693800637667        4.3088693800637667     
 He  -4.3088693800637667       -2.1544346900318834       -4.3088693800637667     
 He  -4.3088693800637667       -2.1544346900318834       -2.1544346900318834     
 He  -4.3088693800637667       -2.1544346900318834        0.0000000000000000     
 He  -4.3088693800637667       -2.1544346900318834        2.1544346900318834     
 He  -4.3088693800637667       -2.1544346900318834        4.3088693800637667     
 He  -4.3088693800637667        0.0000000000000000       -4.3088693800637667     
 He  -4.3088693800637667        0.0000000000000000       -2.1544346900318834     
 He  -4.3088693800637667        0.0000000000000000        0.0000000000000000     
 He  -4.3088693800637667        0.0000000000000000        2.1544346900318834     
 He  -4.3088693800637667        0.0000000000000000        4.3088693800637667     
 He  -4.3088693800637667        2.1544346900318834       -4.3088693800637667     
 He  -4.3088693800637667        2.1544346900318834       -2.1544346900318834     
 He  -4.3088693800637667        2.1544346900318834        0.0000000000000000     
 He  -4.3088693800637667        2.1544346900318834        2.1544346900318834     
 He  -4.3088693800637667        2.1544346900318834        4.3088693800637667     
 He  -4.3088693800637667        4.3088693800637667       -4.3088693800637667     
 He  -4.3088693800637667        4.3088693800637667       -2.1544346900318834     
 He  -4.3088693800637667        4.3088693800637667        0.0000000000000000     
 He  -4.3088693800637667        4.3088693800637667        2.1544346900318834     
 He  -4.3088693800637667        4.3088693800637667        4.3088693800637667     
 He  -2.1544346900318834       -4.3088693800637667       -4.3088693800637667     
 He  -2.1544346900318834       -4.3088693800637667       -2.1544346900318834     
 He  -2.1544346900318834       -4.3088693800637667        0.0000000000000000     
 He  -2.1544346900318834       -4.3088693800637667        2.1544346900318834     
 He  -2.1544346900318834       -4.3088693800637667        4.3088693800637667     
 He  -2.1544346900318834       -2.1544346900318834       -4.3088693800637667     
 He  -2.1544346900318834       -2.1544346900318834       -2.1544346900318834     
 He  -2.1544346900318834       -2.1544346900318834        0.0000000000000000     
 He  -2.1544346900318834       -2.1544346900318834        2.1544346900318834     
 He  -2.1544346900318834       -2.1544346900318834        4.3088693800637667     
 He  -2.1544346900318834        0.0000000000000000       -4.3088693800637667     
 He  -2.1544346900318834        0.0000000000000000       -2.1544346900318834     
 He  -2.1544346900318834        0.0000000000000000        0.0000000000000000     
 He  -2.1544346900318834        0.0000000000000000        2.1544346900318834     
 He  -2.1544346900318834        0.0000000000000000        4.3088693800637667     
 He  -2.1544346900318834        2.1544346900318834       -4.3088693800637667     
 He  -2.1544346900318834        2.1544346900318834       -2.1544346900318834     
 He  -2.1544346900318834        2.1544346900318834        0.0000000000000000     
 He  -2.1544346900318834        2.1544346900318834        2.1544346900318834     
 He  -2.1544346900318834        2.1544346900318834        4.3088693800637667     
 He  -2.1544346900318834        4.3088693800637667       -4.3088693800637667     
 He  -2.1544346900318834        4.3088693800637667       -2.1544346900318834     
 He  -2.1544346900318834        4.3088693800637667        0.0000000000000000     
 He  -2.1544346900318834        4.3088693800637667        2.1544346900318834     
 He  -2.1544346900318834        4.3088693800637667        4.3088693800637667     
 He   0.0000000000000000       -4.3088693800637667       -4.3088693800637667     
 He   0.0000000000000000       -4.3088693800637667       -2.1544346900318834     
 He   0.0000000000000000       -4.3088693800637667        0.0000000000000000     
 He   0.0000000000000000       -4.3088693800637667        2.1544346900318834     
 He   0.0000000000000000       -4.3088693800637667        4.3088693800637667     
 He   0.0000000000000000       -2.1544346900318834       -4.3088693800637667     
 He   0.0000000000000000       -2.1544346900318834       -2.1544346900318834     
 He   0.0000000000000000       -2.1544346900318834        0.0000000000000000     
 He   0.0000000000000000       -2.1544346900318834        2.1544346900318834     
 He   0.0000000000000000       -2.1544346900318834        4.3088693800637667     
 He   0.0000000000000000        0.0000000000000000       -4.3088693800637667     
 He   0.0000000000000000        0.0000000000000000       -2.1544346900318834     
 He   0.0000000000000000        0.0000000000000000        0.0000000000000000     
 He   0.0000000000000000        0.0000000000000000        2.1544346900318834     
 He   0.0000000000000000        0.0000000000000000        4.3088693800637667     
 He   0.0000000000000000        2.1544346900318834       -4.3088693800637667     
 He   0.0000000000000000        2.1544346900318834       -2.1544346900318834     
 He   0.0000000000000000        2.1544346900318834        0.0000000000000000     
 He   0.0000000000000000        2.1544346900318834        2.1544346900318834     
 He   0.0000000000000000        2.1544346900318834        4.3088693800637667     
 He   0.0000000000000000        4.3088693800637667       -4.3088693800637667     
 He   0.0000000000000000        4.3088693800637667       -2.1544346900318834     
 He   0.0000000000000000        4.3088693800637667        0.0000000000000000     
 He   0.0000000000000000        4.3088693800637667        2.1544346900318834     
 He   0.0000000000000000        4.3088693800637667        4.3088693800637667     
 He   2.1544346900318834       -4.3088693800637667       -4.3088693800637667     
 He   2.1544346900318834       -4.3088693800637667       -2.1544346900318834     
 He   2.1544346900318834       -4.3088693800637667        0.0000000000000000     
 He   2.1544346900318834       -4.3088693800637667        2.1544346900318834     
 He   2.1544346900318834       -4.3088693800637667        4.3088693800637667     
 He   2.1544346900318834       -2.1544346900318834       -4.3088693800637667     
 He   2.1544346900318834       -2.1544346900318834       -2.1544346900318834     
 He   2.1544346900318834       -2.1544346900318834        0.0000000000000000     
 He   2.1544346900318834       -2.1544346900318834        2.1544346900318834     
 He   2.1544346900318834       -2.1544346900318834        4.3088693800637667     
 He   2.1544346900318834        0.0000000000000000       -4.3088693800637667     
 He   2.1544346900318834        0.0000000000000000       -2.1544346900318834     
 He   2.1544346900318834        0.0000000000000000        0.0000000000000000     
 He   2.1544346900318834        0.0000000000000000        2.1544346900318834     
 He   2.1544346900318834        0.0000000000000000        4.3088693800637667     
 He   2.1544346900318834        2.1544346900318834       -4.3088693800637667     
 He   2.1544346900318834        2.1544346900318834       -2.1544346900318834     
 He   2.1544346900318834        2.1544346900318834        0.0000000000000000     
 He   2.1544346900318834        2.1544346900318834        2.1544346900318834     
 He   2.1544346900318834        2.1544346900318834        4.3088693800637667     
 He   2.1544346900318834        4.3088693800637667       -4.3088693800637667     
 He   2.1544346900318834        4.3088693800637667       -2.1544346900318834     
 He   2.1544346900318834        4.3088693800637667        0.0000000000000000     
 He   2.1544346900318834        4.3088693800637667        2.1544346900318834     
 He   2.1544346900318834        4.3088693800637667        4.3088693800637667     
 He   4.3088693800637667       -4.3088693800637667       -4.3088693800637667     
 He   4.3088693800637667       -4.3088693800637667       -2.1544346900318834     
 He   4.3088693800637667       -4.3088693800637667        0.0000000000000000     
 He   4.3088693800637667       -4.3088693800637667        2.1544346900318834     
 He   4.3088693800637667       -4.3088693800637667        4.3088693800637667     
 He   4.3088693800637667       -2.1544346900318834       -4.3088693800637667     
 He   4.3088693800637667       -2.1544346900318834       -2.1544346900318834     
 He   4.3088693800637667       -2.1544346900318834        0.0000000000000000     
 He   4.3088693800637667       -2.1544346900318834        2.1544346900318834     
 He   4.3088693800637667       -2.1544346900318834        4.3088693800637667     
 He   4.3088693800637667        0.0000000000000000       -4.3088693800637667     
 He   4.3088693800637667        0.0000000000000000       -2.1544346900318834     
 He   4.3088693800637667        0.0000000000000000        0.0000000000000000     
 He   4.3088693800637667        0.0000000000000000        2.1544346900318834     
 He   4.3088693800637667        0.0000000000000000        4.3088693800637667     
 He   4.3088693800637667        2.1544346900318834       -4.3088693800637667     
 He   4.3088693800637667        2.1544346900318834       -2.1544346900318834     
 He   4.3088693800637667        2.1544346900318834        0.0000000000000000     
 He   4.3088693800637667        2.1544346900318834        2.1544346900318834     
 He   4.3088693800637667        2.1544346900318834        4.3088693800637667     
 He   4.3088693800637667        4.3088693800637667       -4.3088693800637667     
 He   4.3088693800637667        4.3088693800637667       -2.1544346900318834     
 He   4.3088693800637667        4.3088693800637667        0.0000000000000000     
 He   4.3088693800637667        4.3088693800637667        2.1544346900318834     
 He   4.3088693800637667        4.3088693800637667        4.3088693800637667     
